@<TRIPOS>MOLECULE
LIG
   47    49     1     0     0
SMALL
bcc


@<TRIPOS>ATOM
      1 P1           2.4260    -1.6860    -1.6030 p5         1 LIG       1.822500
      2 P2           3.9690     0.2040     0.0450 p5         1 LIG       1.967500
      3 P3           2.2750     1.3030     2.1960 p5         1 LIG       1.817500
      4 O1          -1.0180    -1.3780     0.9930 os         1 LIG      -0.409600
      5 O2          -4.3650    -2.3640     0.1310 oh         1 LIG      -0.583800
      6 O3          -2.5760    -3.9670     1.4010 oh         1 LIG      -0.593800
      7 O4           1.3210    -1.9590    -0.4540 os         1 LIG      -0.576200
      8 O5           3.7220    -1.1490    -0.8010 os         1 LIG      -0.804800
      9 O6           2.8770    -3.1620    -2.0870 oh         1 LIG      -0.796400
     10 O7           1.9720    -0.7820    -2.7120 o          1 LIG      -0.842300
     11 O8           2.7560     0.2050     1.1120 os         1 LIG      -0.814800
     12 O9           3.5650     1.3830    -0.9850 oh         1 LIG      -0.804400
     13 O10          5.3340     0.3380     0.6520 o          1 LIG      -0.858300
     14 O11          1.7780     2.5340     1.2740 oh         1 LIG      -0.788900
     15 O12          0.8980     0.6860     2.7750 oh         1 LIG      -0.788900
     16 O13          3.3050     1.6550     3.2280 o          1 LIG      -0.819300
     17 N1          -2.6390     0.2830     0.4990 na         1 LIG      -0.292000
     18 N2          -3.6010     2.2920     0.3620 nc         1 LIG      -0.534100
     19 N3          -0.7070     0.6510    -0.9280 nb         1 LIG      -0.771000
     20 N4          -0.6820     2.9220    -1.8200 nb         1 LIG      -0.793000
     21 N5          -2.3840     4.5240    -1.3050 nh         1 LIG      -0.957500
     22 C1          -2.9900    -2.1240    -0.0860 c3         1 LIG       0.077100
     23 C2          -2.1230    -3.3340     0.2050 c3         1 LIG       0.085100
     24 C3          -2.4290    -1.1070     0.8970 c3         1 LIG       0.241800
     25 C4          -0.7600    -2.7010     0.4690 c3         1 LIG       0.141100
     26 C5           0.0840    -2.5630    -0.7910 c3         1 LIG       0.146400
     27 C6          -1.8410     1.0320    -0.3210 ca         1 LIG       0.481800
     28 C7          -3.6830     1.0850     0.8820 cd         1 LIG       0.409700
     29 C8          -2.4540     2.2730    -0.3920 ca         1 LIG      -0.244200
     30 C9          -1.8320     3.2380    -1.1770 ca         1 LIG       0.763200
     31 C10         -0.1980     1.6670    -1.6580 ca         1 LIG       0.703900
     32 H1          -2.8500    -1.7970    -1.1230 h1         1 LIG       0.115700
     33 H2          -2.1210    -4.0830    -0.5920 h1         1 LIG       0.070700
     34 H3          -2.8610    -1.2130     1.9000 h2         1 LIG       0.087700
     35 H4          -0.1970    -3.2400     1.2390 h1         1 LIG       0.104700
     36 H5          -0.4110    -1.9410    -1.5420 h1         1 LIG       0.068700
     37 H6           0.2770    -3.5480    -1.2270 h1         1 LIG       0.068700
     38 H7          -4.4940    -2.5760     1.0710 ho         1 LIG       0.419000
     39 H8          -3.4310    -4.3850     1.2010 ho         1 LIG       0.423000
     40 H9          -4.4690     0.7350     1.5370 h5         1 LIG       0.073800
     41 H10          0.7260     1.4580    -2.1840 h5         1 LIG       0.094100
     42 H11         -3.2420     4.7620    -0.8260 hn         1 LIG       0.447300
     43 H12         -1.9130     5.2080    -1.8820 hn         1 LIG       0.447300
     44 H13          2.3130    -3.6440    -2.7290 ho         1 LIG       0.491000
     45 H14          4.2020     1.6400    -1.6860 ho         1 LIG       0.493000
     46 H15          1.5150     3.3750     1.7050 ho         1 LIG       0.505500
     47 H16          0.4460     1.1450     3.5150 ho         1 LIG       0.505500
@<TRIPOS>BOND
     1     1     7 1   
     2     1     8 1   
     3     1     9 1   
     4     1    10 2   
     5     2     8 1   
     6     2    11 1   
     7     2    12 1   
     8     2    13 2   
     9     3    11 1   
    10     3    14 1   
    11     3    15 1   
    12     3    16 2   
    13     4    24 1   
    14     4    25 1   
    15     5    22 1   
    16     5    38 1   
    17     6    23 1   
    18     6    39 1   
    19     7    26 1   
    20     9    44 1   
    21    12    45 1   
    22    14    46 1   
    23    15    47 1   
    24    17    24 1   
    25    17    27 1   
    26    17    28 1   
    27    18    28 2   
    28    18    29 1   
    29    19    27 ar  
    30    19    31 ar  
    31    20    30 ar  
    32    20    31 ar  
    33    21    30 1   
    34    21    42 1   
    35    21    43 1   
    36    22    23 1   
    37    22    24 1   
    38    22    32 1   
    39    23    25 1   
    40    23    33 1   
    41    24    34 1   
    42    25    26 1   
    43    25    35 1   
    44    26    36 1   
    45    26    37 1   
    46    27    29 ar  
    47    28    40 1   
    48    29    30 ar  
    49    31    41 1   
@<TRIPOS>SUBSTRUCTURE
     1 LIG         1 TEMP              0 ****  ****    0 ROOT
