@<TRIPOS>MOLECULE
LIG
   34    34     1     0     0
SMALL
bcc


@<TRIPOS>ATOM
      1 P1          -4.1490     1.2230    -0.1130 p5         1 LIG       1.662500
      2 P2           4.1580     1.3670     0.1110 p5         1 LIG       1.637500
      3 O1           0.4150    -0.5420     0.9960 os         1 LIG      -0.432600
      4 O2          -1.4980    -1.8290     1.4440 oh         1 LIG      -0.636800
      5 O3          -0.5650    -0.6270    -1.8610 oh         1 LIG      -0.596800
      6 O4           0.3580    -3.5480     0.0040 oh         1 LIG      -0.589800
      7 O5          -3.0450     0.0460     0.0210 os         1 LIG      -0.592200
      8 O6           3.0340     0.3130     0.6070 os         1 LIG      -0.546200
      9 O7          -3.3960     2.3580    -0.9850 oh         1 LIG      -0.779900
     10 O8          -4.1820     1.8580     1.3740 oh         1 LIG      -0.779900
     11 O9           3.4000     2.2280    -1.0290 oh         1 LIG      -0.773900
     12 O10          5.1740     0.4380    -0.7380 oh         1 LIG      -0.773900
     13 O11         -5.4820     0.7840    -0.6450 o          1 LIG      -0.786300
     14 O12          4.7980     2.1720     1.2030 o          1 LIG      -0.814300
     15 C1          -0.9070    -0.8840     0.5480 c3         1 LIG       0.292600
     16 C2          -0.7160    -1.5680    -0.8070 c3         1 LIG       0.080100
     17 C3           0.6060    -2.2910    -0.6210 c3         1 LIG       0.114100
     18 C4           1.3780    -1.3890     0.3400 c3         1 LIG       0.137100
     19 C5          -1.7600     0.3780     0.5150 c3         1 LIG       0.184400
     20 C6           2.3810    -0.4870    -0.3640 c3         1 LIG       0.160400
     21 H1          -1.5460    -2.2400    -1.0520 h1         1 LIG       0.076700
     22 H2           1.1540    -2.4790    -1.5500 h1         1 LIG       0.079700
     23 H3           1.8820    -1.9640     1.1250 h1         1 LIG       0.111700
     24 H4          -1.2960     1.1540    -0.1030 h1         1 LIG       0.079200
     25 H5          -1.8590     0.7790     1.5300 h1         1 LIG       0.079200
     26 H6           1.8750     0.1740    -1.0730 h1         1 LIG       0.066700
     27 H7           3.1200    -1.0900    -0.9000 h1         1 LIG       0.066700
     28 H8          -1.2060    -2.7230     1.2030 ho         1 LIG       0.442000
     29 H9          -0.4030    -1.1270    -2.6790 ho         1 LIG       0.440000
     30 H10         -0.1600    -4.0850    -0.6190 ho         1 LIG       0.418000
     31 H11         -3.8970     3.1550    -1.2600 ho         1 LIG       0.498000
     32 H12         -4.8510     2.5440     1.5820 ho         1 LIG       0.498000
     33 H13          3.8660     2.9870    -1.4390 ho         1 LIG       0.487500
     34 H14          6.0060     0.8320    -1.0770 ho         1 LIG       0.487500
@<TRIPOS>BOND
     1     1     7 1   
     2     1     9 1   
     3     1    10 1   
     4     1    13 2   
     5     2     8 1   
     6     2    11 1   
     7     2    12 1   
     8     2    14 2   
     9     3    15 1   
    10     3    18 1   
    11     4    15 1   
    12     4    28 1   
    13     5    16 1   
    14     5    29 1   
    15     6    17 1   
    16     6    30 1   
    17     7    19 1   
    18     8    20 1   
    19     9    31 1   
    20    10    32 1   
    21    11    33 1   
    22    12    34 1   
    23    15    16 1   
    24    15    19 1   
    25    16    17 1   
    26    16    21 1   
    27    17    18 1   
    28    17    22 1   
    29    18    20 1   
    30    18    23 1   
    31    19    24 1   
    32    19    25 1   
    33    20    26 1   
    34    20    27 1   
@<TRIPOS>SUBSTRUCTURE
     1 LIG         1 TEMP              0 ****  ****    0 ROOT
