@<TRIPOS>MOLECULE
LIG
   14    14     1     0     0
SMALL
bcc


@<TRIPOS>ATOM
      1 O1           2.3490     1.0980     0.0000 o          1 LIG      -0.209000
      2 O2           2.3490    -1.0980     0.0000 o          1 LIG      -0.209000
      3 N1           1.7420     0.0000    -0.0000 no         1 LIG       0.312200
      4 C1           0.3220     0.0000    -0.0000 ca         1 LIG      -0.176200
      5 C2          -0.3760     1.2080     0.0000 ca         1 LIG      -0.068000
      6 C3          -0.3760    -1.2080    -0.0000 ca         1 LIG      -0.068000
      7 C4          -1.7710     1.2080     0.0000 ca         1 LIG      -0.140000
      8 C5          -1.7710    -1.2080     0.0000 ca         1 LIG      -0.140000
      9 C6          -2.4680     0.0000     0.0000 ca         1 LIG      -0.088000
     10 H1           0.1340     2.1680    -0.0000 ha         1 LIG       0.171000
     11 H2           0.1340    -2.1680    -0.0000 ha         1 LIG       0.171000
     12 H3          -2.3140     2.1480     0.0000 ha         1 LIG       0.148000
     13 H4          -2.3140    -2.1480     0.0000 ha         1 LIG       0.148000
     14 H5          -3.5540     0.0000     0.0000 ha         1 LIG       0.144000
@<TRIPOS>BOND
     1     1     3 1   
     2     2     3 1   
     3     3     4 1   
     4     4     5 ar  
     5     4     6 ar  
     6     5     7 ar  
     7     5    10 1   
     8     6     8 ar  
     9     6    11 1   
    10     7     9 ar  
    11     7    12 1   
    12     8     9 ar  
    13     8    13 1   
    14     9    14 1   
@<TRIPOS>SUBSTRUCTURE
     1 LIG         1 TEMP              0 ****  ****    0 ROOT
