@<TRIPOS>MOLECULE
LIG
    9     8     1     0     0
SMALL
bcc


@<TRIPOS>ATOM
      1 O1          -1.1710     0.3000     0.0000 oh         1 LIG      -0.599800
      2 C1          -0.0460    -0.5670     0.0000 c3         1 LIG       0.126400
      3 C2           1.2180     0.2670     0.0000 c3         1 LIG      -0.136100
      4 H1          -0.0960    -1.2120     0.8820 h1         1 LIG       0.043200
      5 H2          -0.0950    -1.1940    -0.8950 h1         1 LIG       0.043200
      6 H3           2.1050    -0.3720    -0.0180 hc         1 LIG       0.042367
      7 H4           1.2430     0.9310    -0.8700 hc         1 LIG       0.042367
      8 H5           1.2620     0.9050     0.8890 hc         1 LIG       0.042367
      9 H6          -1.1290     0.8360     0.8100 ho         1 LIG       0.396000
@<TRIPOS>BOND
     1     1     2 1   
     2     1     9 1   
     3     2     3 1   
     4     2     4 1   
     5     2     5 1   
     6     3     6 1   
     7     3     7 1   
     8     3     8 1   
@<TRIPOS>SUBSTRUCTURE
     1 LIG         1 TEMP              0 ****  ****    0 ROOT
