@<TRIPOS>MOLECULE
LIG
    5     4     1     0     0
SMALL
bcc


@<TRIPOS>ATOM
      1 Br1         -0.9670     0.0000     0.0000 br         1 LIG      -0.166400
      2 C1           0.9670     0.0000     0.0000 c3         1 LIG      -0.039700
      3 H1           1.3060    -1.0340     0.0810 h1         1 LIG       0.068700
      4 H2           1.3060     0.4470    -0.9360 h1         1 LIG       0.068700
      5 H3           1.3060     0.5870     0.8550 h1         1 LIG       0.068700
@<TRIPOS>BOND
     1     1     2 1   
     2     2     3 1   
     3     2     4 1   
     4     2     5 1   
@<TRIPOS>SUBSTRUCTURE
     1 LIG         1 TEMP              0 ****  ****    0 ROOT
