@<TRIPOS>MOLECULE
LIG
    6     5     1     0     0
SMALL
bcc


@<TRIPOS>ATOM
      1 C1          -0.6670     0.0000     0.0000 c2         1 LIG      -0.218000
      2 C2           0.6670     0.0000     0.0000 c2         1 LIG      -0.218000
      3 H1          -1.2210    -0.9290     0.0710 ha         1 LIG       0.109000
      4 H2          -1.2210     0.9290    -0.0710 ha         1 LIG       0.109000
      5 H3           1.2210     0.9290    -0.0710 ha         1 LIG       0.109000
      6 H4           1.2210    -0.9290     0.0710 ha         1 LIG       0.109000
@<TRIPOS>BOND
     1     1     2 2   
     2     1     3 1   
     3     1     4 1   
     4     2     5 1   
     5     2     6 1   
@<TRIPOS>SUBSTRUCTURE
     1 LIG         1 TEMP              0 ****  ****    0 ROOT
