@<TRIPOS>MOLECULE
LIG
    6     5     1     0     0
SMALL
bcc


@<TRIPOS>ATOM
      1 O1           0.7080     0.0000     0.0000 oh         1 LIG      -0.598800
      2 C1          -0.7080     0.0000     0.0000 c3         1 LIG       0.116700
      3 H1          -1.0730    -0.7690     0.6850 h1         1 LIG       0.028700
      4 H2          -1.0730    -0.1950    -1.0110 h1         1 LIG       0.028700
      5 H3          -1.0630     0.9790     0.3310 h1         1 LIG       0.028700
      6 H4           0.9940    -0.8800    -0.2980 ho         1 LIG       0.396000
@<TRIPOS>BOND
     1     1     2 1   
     2     1     6 1   
     3     2     3 1   
     4     2     4 1   
     5     2     5 1   
@<TRIPOS>SUBSTRUCTURE
     1 LIG         1 TEMP              0 ****  ****    0 ROOT
